LAMMPS (2 Aug 2023)
# PART A - ENERGY MINIMIZATION
# 1) Initialization
# 2) System definition
# 3) Simulation settings
# 4) Visualization
# 5) Run

# 1) Initialization
units lj
dimension 2
atom_style atomic
pair_style lj/cut 2.5
boundary p p p

# 2) System definition
region myreg block -30 30 -30 30 -0.5 0.5
create_box 2 myreg
Created orthogonal box = (-30 -30 -0.5) to (30 30 0.5)
create_atoms 1 random 1500 341341 myreg
Created 1500 atoms
create_atoms 2 random 100 127569 myreg
Created 100 atoms

# 3) Simulation settings
mass 1 1
mass 2 1
pair_coeff 1 1 1.0 1.0
pair_coeff 2 2 0.5 3.0
neigh_modify every 1 delay 5 check yes

# 4) Visualization
thermo 10

# 5) Run
minimize 1.0e-4 1.0e-6 1000 10000
Generated 1 of 1 mixed pair_coeff terms from geometric mixing rule
Step          Temp          E_pair         E_mol          TotEng         Press
0   0              5.8997404e+14  0              5.8997404e+14  1.5732641e+15
Loop time of 0.0499986 on 1 procs for 81 steps with 1600 atoms

Minimization stats:
  Stopping criterion = energy tolerance
  Energy initial, next-to-last, final =
  Force two-norm initial, final = 2.5817498e+20 60.584174
  Force max component initial, final = 1.5160091e+20 11.519543
  Final line search alpha, max atom move = 6.6931485e-05 0.00077102009
  Iterations, force evaluations = 81 197

# PART B - MOLECULAR DYNAMICS
# 4) Visualization
thermo 1000
variable kinetic_energy equal ke
variable potential_energy equal pe
variable pressure equal press
fix myat1 all ave/time 10 1 10 v_kinetic_energy v_potential_energy v_pressure file energy.dat

# 5) Run
fix mynve all nve
fix mylgv all langevin 1.0 1.0 0.1 1530917
fix myefn all enforce2d
timestep 0.005
run 10000
Generated 1 of 1 mixed pair_coeff terms from geometric mixing rule
Step          Temp          E_pair         E_mol          TotEng         Press
81   0             -1.7518285      0             -1.7518285     -0.15730928
Averages over the last 6 of 12 rows, steps 6000 to 10081:
Temp E_pair E_mol TotEng Press
1.00134 -1.31136 0 -0.310645 0.765644
Loop time of 1.81595 on 1 procs for 10000 steps with 1600 atoms
