LAMMPS (2 Aug 2023)
# Initialisation

variable T equal 300

units metal
atom_style full
boundary p p p
pair_style airebo 2.5 1 1

# System definition

#read_data cnt.data

# set pair_coeff
read_data carbon.data
Reading data file ...
  orthogonal box = (-20.965628 -19.438999 -40) to (59.034372 60.561001 40)
  reading atoms ...
  680 atoms
  scanning bonds ...
  scanning angles ...
  scanning dihedrals ...
  scanning impropers ...
  reading bonds ...
  983 bonds
  reading angles ...
  1894 angles
  reading dihedrals ...
  3665 dihedrals
  reading impropers ...
  608 impropers
Finding 1-2 1-3 1-4 neighbors ...
     3 = max # of 1-2 neighbors
     6 = max # of 1-3 neighbors
    18 = max # of 1-4 neighbors
    18 = max # of special neighbors
pair_coeff * * CH.airebo C
Reading airebo potential file CH.airebo with DATE: 2011-10-25

# Simulation settings

group gcar type 1
680 atoms in group gcar
variable zmax equal bound(gcar,zmax)
variable zmin equal bound(gcar,zmin)
region rtop block INF INF INF INF 0 INF
region rbot block INF INF INF INF INF 0
region rmid block INF INF INF INF 0 0

group gtop region rtop
680 atoms in group gtop
group gbot region rbot
680 atoms in group gbot
group gmid region rmid
680 atoms in group gmid

velocity gmid create 300 48455 mom yes rot yes
fix mynve all nve
compute Tmid gmid temp
fix myber gmid temp/berendsen 300 300 0.1
fix_modify myber temp Tmid

# change below
fix mysf1 gbot setforce NULL NULL 0
fix mysf2 gtop setforce NULL NULL 0
velocity gbot set NULL NULL 0
velocity gtop set NULL NULL 0

variable pos equal xcm(gtop,z)
fix at1 all ave/time 10 100 1000 v_pos file cnt_deflection.dat
fix at2 all ave/time 10 100 1000 f_mysf1[1] f_mysf2[1] file force.dat
dump mydmp all atom 1000 dump.lammpstrj

thermo 100
thermo_modify temp Tmid

# Run
timestep 0.0005
run 5000
Step          Temp          E_pair         E_mol          TotEng         Press
0   202.77563     -9.6679489      0              8.1291897     -12.405798
Averages over the last 26 of 51 rows, steps 2500 to 5000:
Temp E_pair E_mol TotEng Press
463.095 -3760.7 0 -3720.05 8.18684
Loop time of 8.8696 on 1 procs for 5000 steps with 680 atoms

# 0.15 A/ps = 30 m/s
velocity gtop set NULL NULL 0.15
run 250000
Step          Temp          E_pair         E_mol          TotEng         Press
5000   360.79303     -3790.4732      0             -3758.8073      43.931874
Averages over the last 1251 of 2501 rows, steps 130000 to 255000:
Temp E_pair E_mol TotEng Press
300.199 -4093.34 0 -4067 -6.23252
Loop time of 441.726 on 1 procs for 250000 steps with 680 atoms
